7IK
  CCTOOLS-0919241028

 42 44  0  0  1  0  0  0  0  0999 V2000
    3.3320   -0.1750    1.3030 C   0  0  0  0  0
   -4.5160   -1.1450   -0.0480 C   0  0  0  0  0
   -3.0230   -1.2410    0.2740 C   0  0  0  0  0
   -0.9140   -0.3200   -0.2770 C   0  0  0  0  0
   -0.1290   -1.4690   -0.4650 C   0  0  0  0  0
    1.1530   -1.1430   -0.1360 C   0  0  0  0  0
    2.3920    0.8500    0.6700 C   0  0  0  0  0
   -4.2850    1.1930   -0.5130 C   0  0  0  0  0
   -2.5660    1.4220    1.2870 C   0  0  0  0  0
    2.3950   -1.9350   -0.1380 C   0  0  0  0  0
    3.0720    1.4840   -0.5460 C   0  0  0  0  0
    2.1300    2.5110   -1.1790 C   0  0  0  0  0
   -2.7890    1.1210   -0.1960 C   0  0  0  0  0
    4.3620    2.1780   -0.1060 C   0  0  0  0  0
    1.1610    0.1810    0.2490 N   0  0  0  0  0
   -0.1390    0.6570    0.1470 N   0  0  0  0  0
    3.4540   -1.3920    0.5090 N   0  0  0  0  0
   -2.2930   -0.2290   -0.5030 N   0  0  0  0  0
    2.4650   -3.0170   -0.6890 O   0  0  0  0  0
   -4.9730    0.1820    0.2270 O   0  0  0  0  0
    4.3190    0.2730    1.4130 H   0  0  0  0  0
    2.9540   -0.4370    2.2910 H   0  0  0  0  0
   -4.6770   -1.3750   -1.1010 H   0  0  0  0  0
   -5.0680   -1.8550    0.5680 H   0  0  0  0  0
   -2.8680   -1.0640    1.3380 H   0  0  0  0  0
   -2.6570   -2.2340    0.0130 H   0  0  0  0  0
   -0.4760   -2.4320   -0.8060 H   0  0  0  0  0
    2.1540    1.6250    1.3990 H   0  0  0  0  0
   -4.6690    2.1740   -0.2340 H   0  0  0  0  0
   -4.4390    1.0320   -1.5800 H   0  0  0  0  0
   -3.1010    0.6890    1.8910 H   0  0  0  0  0
   -1.5000    1.3700    1.5120 H   0  0  0  0  0
   -2.9370    2.4210    1.5150 H   0  0  0  0  0
    3.3070    0.7090   -1.2760 H   0  0  0  0  0
    2.6140    2.9620   -2.0450 H   0  0  0  0  0
    1.2110    2.0160   -1.4930 H   0  0  0  0  0
    1.8950    3.2860   -0.4500 H   0  0  0  0  0
   -2.2530    1.8520   -0.8010 H   0  0  0  0  0
    5.0320    1.4470    0.3450 H   0  0  0  0  0
    4.8450    2.6290   -0.9720 H   0  0  0  0  0
    4.1260    2.9530    0.6240 H   0  0  0  0  0
    4.3200   -1.8250    0.4420 H   0  0  0  0  0
  1 17  1  0  0  0
  1  7  1  0  0  0
  1 21  1  0  0  0
  1 22  1  0  0  0
  2 20  1  0  0  0
  2 23  1  0  0  0
  2 24  1  0  0  0
  3  2  1  0  0  0
  3 25  1  0  0  0
  3 26  1  0  0  0
  4 18  1  0  0  0
  5  4  1  0  0  0
  5 27  1  0  0  0
  6  5  2  0  0  0
  7 15  1  0  0  0
  7 28  1  0  0  0
  8 20  1  0  0  0
  8 29  1  0  0  0
  8 30  1  0  0  0
  9 13  1  0  0  0
  9 31  1  0  0  0
  9 32  1  0  0  0
  9 33  1  0  0  0
 10 19  2  0  0  0
 10  6  1  0  0  0
 11  7  1  0  0  0
 11 34  1  0  0  0
 12 11  1  0  0  0
 12 35  1  0  0  0
 12 36  1  0  0  0
 12 37  1  0  0  0
 13  8  1  0  0  0
 13 38  1  0  0  0
 14 11  1  0  0  0
 14 39  1  0  0  0
 14 40  1  0  0  0
 14 41  1  0  0  0
 15  6  1  0  0  0
 15 16  1  0  0  0
 16  4  2  0  0  0
 17 10  1  0  0  0
 17 42  1  0  0  0
 18  3  1  0  0  0
 18 13  1  0  0  0
M  END
$$$$
